  
       XFOIL         Version 6.99
  
 Calculated polar for: NACA 0012                                       
  
 1 1 Reynolds number fixed          Mach number fixed         
  
 xtrf =   1.000 (top)        1.000 (bottom)  
 Mach =   0.056     Re =     1.389 e 6     Ncrit =   9.000  9.000
  
   alpha    CL        CD       CDp       CM     Top_Xtr  Bot_Xtr  Top_Itr  Bot_Itr
  ------ -------- --------- --------- -------- -------- -------- -------- --------
  -3.000  -0.3255   0.00605   0.00068  -0.0032   0.8965   0.3188   8.4976 117.6890
  -2.500  -0.2720   0.00578   0.00057  -0.0025   0.8627   0.3717  10.5352 120.9401
  -2.000  -0.2181   0.00557   0.00048  -0.0018   0.8235   0.4248  12.8846 124.1746
  -1.500  -0.1639   0.00542   0.00041  -0.0013   0.7801   0.4778  15.4842 127.3858
  -1.000  -0.1094   0.00532   0.00036  -0.0008   0.7334   0.5305  18.2799 130.5608
  -0.500  -0.0548   0.00527   0.00034  -0.0004   0.6843   0.5826  21.2174 133.6948
   0.000  -0.0000   0.00525   0.00033   0.0000   0.6337   0.6338  24.2413 136.7591
   0.500   0.0548   0.00527   0.00034   0.0004   0.5826   0.6843  27.3052 139.7826
   1.000   0.1094   0.00532   0.00036   0.0008   0.5305   0.7333  30.4391 142.7197
   1.500   0.1639   0.00542   0.00041   0.0013   0.4778   0.7800  33.6155 145.5136
   2.000   0.2182   0.00557   0.00048   0.0018   0.4248   0.8235  36.8257 148.1151
   2.500   0.2720   0.00578   0.00057   0.0025   0.3717   0.8627  40.0616 150.4653
   3.000   0.3255   0.00605   0.00068   0.0032   0.3188   0.8965  43.3112 152.5015
   3.500   0.3785   0.00640   0.00082   0.0040   0.2665   0.9247  46.5629 154.2226
   4.000   0.4308   0.00682   0.00098   0.0050   0.2162   0.9481  49.7491 155.7006
   4.500   0.4834   0.00729   0.00116   0.0058   0.1705   0.9668  52.7132 156.9699
   5.000   0.5407   0.00780   0.00137   0.0055   0.1309   0.9795  55.4057 157.9357
   5.500   0.6060   0.00838   0.00161   0.0033   0.0972   0.9857  57.8901 158.4672
   6.000   0.6717   0.00894   0.00187   0.0010   0.0738   0.9909  59.8759 158.9276
   6.500   0.7399   0.00948   0.00214  -0.0018   0.0581   0.9937  61.4849 159.2406
   7.000   0.8075   0.01008   0.00244  -0.0046   0.0458   0.9967  63.0042 159.5978
   7.500   0.8740   0.01065   0.00273  -0.0072   0.0387   0.9994  64.0768 159.9294
   8.000   0.9225   0.01123   0.00303  -0.0059   0.0333   1.0000  65.0042 160.0000
   8.500   0.9653   0.01172   0.00327  -0.0033   0.0303   1.0000  65.5840 160.0000
   9.000   1.0076   0.01234   0.00360  -0.0008   0.0274   1.0000  66.2037 160.0000
   9.500   1.0509   0.01300   0.00393   0.0015   0.0247   1.0000  66.8078 160.0000
  10.000   1.0948   0.01370   0.00432   0.0037   0.0229   1.0000  67.2615 160.0000
  10.500   1.1397   0.01445   0.00472   0.0054   0.0211   1.0000  67.7162 160.0000
  11.000   1.1835   0.01540   0.00527   0.0073   0.0196   1.0000  68.1301 160.0000
  11.500   1.2288   0.01619   0.00569   0.0088   0.0183   1.0000  68.4982 160.0000
  12.000   1.2699   0.01734   0.00635   0.0108   0.0170   1.0000  68.8853 160.0000
  12.500   1.3098   0.01849   0.00702   0.0129   0.0162   1.0000  69.1392 160.0000
  13.000   1.3491   0.01958   0.00763   0.0149   0.0155   1.0000  69.3919 160.0000
  13.500   1.3844   0.02084   0.00833   0.0174   0.0148   1.0000  69.6350 160.0000
  14.000   1.4053   0.02258   0.00935   0.0218   0.0140   1.0000  69.8821 160.0000
  14.500   1.4216   0.02471   0.01068   0.0260   0.0135   1.0000  70.0625 160.0000
  15.000   1.4429   0.02675   0.01194   0.0287   0.0131   1.0000  70.2092 160.0000
  15.500   1.4578   0.02956   0.01379   0.0308   0.0127   1.0000  70.3600 160.0000
  16.000   1.4678   0.03327   0.01637   0.0319   0.0124   1.0000  70.4977 160.0000
  16.500   1.4714   0.03825   0.02000   0.0315   0.0121   1.0000  70.6160 160.0000
  17.000   1.4644   0.04525   0.02538   0.0292   0.0118   1.0000  70.7154 160.0000
  17.500   1.4418   0.05515   0.03342   0.0246   0.0116   1.0000  70.7896 160.0000
  18.000   1.4014   0.06834   0.04466   0.0180   0.0115   1.0000  70.8268 160.0000
  18.500   1.3470   0.08433   0.05902   0.0099   0.0115   1.0000  70.8283 160.0000
  19.000   1.2851   0.10228   0.07620   0.0007   0.0116   1.0000  70.8094 160.0000
  19.500   1.2267   0.12038   0.09503  -0.0088   0.0116   1.0000  70.8004 160.0000
  20.000   1.1781   0.13755   0.11481  -0.0183   0.0115   1.0000  70.8176 160.0000
